/*--------------------------------*- C++ -*----------------------------------*\
  =========                 |
  \\      /  F ield         | OpenFOAM: The Open Source CFD Toolbox
   \\    /   O peration     | Website:  https://openfoam.org
    \\  /    A nd           | Version:  8
     \\/     M anipulation  |
\*---------------------------------------------------------------------------*/
FoamFile
{
    version     2.0;
    format      ascii;
    class       dictionary;
    location    "system";
    object      controlDict;
}
// * * * * * * * * * * * * * * * * * * * * * * * * * * * * * * * * * * * * * //

application     simpleFoam;

startFrom       latestTime;

startTime 	0;

stopAt          endTime;

endTime 	3000;

deltaT          1;

writeInterval 	$endTime;

purgeWrite      0;

writeFormat     ascii;

writePrecision  10;

timeFormat      general;

timePrecision   6;

runTimeModifiable yes;

libs
(
      "libHFDIBRANS.so"
);

functions
{
      #include "residuals"
}

// ************************************************************************* //
