/*--------------------------------*- C++ -*----------------------------------*\
  =========                 |
  \\      /  F ield         | OpenFOAM: The Open Source CFD Toolbox
   \\    /   O peration     | Website:  https://openfoam.org
    \\  /    A nd           | Version:  8
     \\/     M anipulation  |
\*---------------------------------------------------------------------------*/
FoamFile
{
    version     2.0;
    format      ascii;
    class       dictionary;
    location    "system";
    object      fvSchemes;
}
// * * * * * * * * * * * * * * * * * * * * * * * * * * * * * * * * * * * * * //

ddtSchemes
{
    default         steadyState;
}

gradSchemes
{
    default         Gauss linear;
    grad(U)         cellLimited Gauss linear 1;
    grad(lambda)    pointCellsLeastSquares;
}

divSchemes
{
    default         Gauss linear;
    div(phi,U)      bounded Gauss linearUpwindV grad(U);
    div(phi,k)      bounded Gauss upwind;
    div(phi,omega)  bounded Gauss upwind;
    div(phi,epsilon)  bounded Gauss upwind;
    div((nuEff*dev2(T(grad(U))))) Gauss linear;
    div(((lambda*(1|A(U)))*f))  Gauss linear;
}

laplacianSchemes
{
    default         Gauss linear orthogonal;
}

interpolationSchemes
{
    default         linear;
}

snGradSchemes
{
    default         orthogonal;
}

fluxRequired
{
    default         no;
    p;
}

wallDist
{
    method          meshWave;
    correctWalls    true;
}

HFDIBSchemes
{
    outerSchemes
    {
        U               unifunctional quadratic;
        k               switched quadratic logarithmic;
    }

    innerSchemes
    {
        U               cellPointFace;
        nut             cellPointFace;
        k               cellPointFace;
        omega           cellPointFace;
        epsilon         cellPointFace;
    }
}

// ************************************************************************* //
